CRYSTAL
PRIMVEC
7.135384058000000  0.000000000000000  0.000000000000000
0.000000000000000  7.135384058000000  0.000000000000000
0.000000000000000  0.000000000000000  7.135384058000000
PRIMCOORD
63  1
C    0.375633554950149  0.873857612983050  0.375838071650959
C    0.000011156783986  0.000197501845382  0.500103063049137
C    0.000082238396864  0.500170353352300  0.500170353352300
C    0.499716390247193  0.000121059297198  0.000121059297198
C    0.500028106125365  0.500151144473696  -0.000014549994995
C    -0.000076808453972  -0.000055180599395  -0.000055180599395
C    0.000011156783986  0.500103063049137  0.000197501845382
C    0.249888011726805  -0.001505611869830  0.250097349454942
C    0.250519926508790  0.494010368714996  0.250335668005474
C    0.749016692064042  0.001116682927355  0.250382966569364
C    0.747685711986802  0.501422522353264  0.252488793063837
C    0.250268068269616  0.001150956768848  0.749060284761984
C    0.253187672560431  0.502163978473054  0.747584711815637
C    0.749799669451673  -0.000067349635547  0.749984283616020
C    0.500028106125365  -0.000014549994995  0.500151144473695
C    0.749292819377222  0.498890986641554  0.749794064956476
C    0.253187672560431  0.747584711815637  0.502163978473054
C    0.747685711986802  0.252488793063838  0.501422522353264
C    0.749292819377222  0.749794064956476  0.498890986641554
C    0.249888011726805  0.250097349454942  -0.001505611869830
C    0.250268068269616  0.749060284761984  0.001150956768848
C    0.749016692064042  0.250382966569364  0.001116682927355
C    0.749799669451673  0.749984283616020  -0.000067349635547
C    0.493952803078167  0.249812353502756  0.249812353502756
C    0.501514010542194  0.748678130516565  0.251962507995228
C    -0.001538638299952  0.250066400498522  0.250066400498522
C    0.001207722428166  0.748922879388755  0.250664709775621
C    0.501514010542194  0.251962507995228  0.748678130516565
C    0.498148210921023  0.749642558966858  0.749642558966858
C    0.250519926508790  0.250335668005474  0.494010368714996
C    0.001207722428166  0.250664709775621  0.748922879388755
C    0.874386338720042  0.624708671925925  0.624708671925925
C    0.369147691874469  0.634641217682530  0.634641217682530
C    0.876438028222121  0.876454481407220  0.376033398828476
C    0.873649832994763  0.375905608180600  0.375905608180600
C    0.375845733474216  0.876488836171759  0.876488836171759
C    0.375633554950149  0.375838071650959  0.873857612983050
C    0.874891593812060  0.874953624343847  0.874953624343847
C    0.876438028222121  0.376033398828476  0.876454481407220
C    0.125300749858826  0.874043154788088  0.125512356067223
C    0.123419605403114  0.374751506451762  0.123547495940296
C    0.624445058981573  0.876230891554946  0.124252590470426
C    0.622549539393739  0.376306582285960  0.126996673744222
C    0.124463569400125  0.875943287302007  0.624666094374008
C    0.127495697901531  0.376688529056108  0.622598396032773
C    0.875900059639649  0.124610047521155  0.624692547619729
C    0.624611794060343  0.874751688390660  0.624997396151091
C    0.123419605403114  0.123547495940296  0.374751506451762
C    0.127495697901531  0.622598396032773  0.376688529056108
C    0.622549539393739  0.126996673744222  0.376306582285960
C    0.636127453125532  0.637282711115137  0.365686227172770
C    0.125300749858826  0.125512356067223  0.874043154788088
C    0.124463569400125  0.624666094374008  0.875943287302007
C    0.624445058981573  0.124252590470426  0.876230891554946
C    0.624611794060343  0.624997396151091  0.874751688390660
C    0.374540944854467  0.123303159818690  0.123303159818690
C    0.376342441568291  0.622702755886703  0.127148510996485
C    0.874089307960277  0.125397928656360  0.125397928656360
C    0.875900059639649  0.624692547619729  0.124610047521155
C    0.376342441568291  0.127148510996485  0.622702755886703
C    0.636127453125532  0.365686227172770  0.637282711115137
C    -0.000182114360918  0.749906412335174  0.749906412335174
N    0.362920438410139  0.361879904862810  0.361879904862810
